  
       XFOIL         Version 6.99
  
 Calculated polar for: MH 32  8.7%                                     
  
 1 1 Reynolds number fixed          Mach number fixed         
  
 xtrf =   1.000 (top)        1.000 (bottom)  
 Mach =   0.000     Re =     0.402 e 6     Ncrit =   9.000
  
   alpha    CL        CD       CDp       CM     Top_Xtr  Bot_Xtr
  ------ -------- --------- --------- -------- -------- --------
  -4.000  -0.1357   0.01268   0.00646  -0.0677   0.9580   0.0094
  -2.000   0.0735   0.00721   0.00265  -0.0646   0.9058   0.5768
   0.000   0.3229   0.00594   0.00190  -0.0671   0.8334   1.0000
   2.000   0.5184   0.00642   0.00170  -0.0606   0.6927   1.0000
   4.000   0.7186   0.00803   0.00260  -0.0559   0.4918   1.0000
   6.000   0.9110   0.01100   0.00476  -0.0513   0.2359   1.0000
   8.000   1.0832   0.01638   0.00933  -0.0446   0.0271   1.0000
  10.000   1.1901   0.02681   0.02068  -0.0286   0.0043   1.0000
