  
       XFOIL         Version 6.99
  
 Calculated polar for: NACA 2412                                       
  
 1 1 Reynolds number fixed          Mach number fixed         
  
 xtrf =   1.000 (top)        1.000 (bottom)  
 Mach =   0.000     Re =     0.402 e 6     Ncrit =   9.000
  
   alpha    CL        CD       CDp       CM     Top_Xtr  Bot_Xtr
  ------ -------- --------- --------- -------- -------- --------
  -4.000  -0.1882   0.01028   0.00394  -0.0590   0.9465   0.1708
  -2.000   0.0310   0.00795   0.00263  -0.0571   0.8732   0.4769
   0.000   0.2328   0.00680   0.00247  -0.0494   0.7637   0.8973
   2.000   0.5180   0.00769   0.00268  -0.0611   0.6123   1.0000
   4.000   0.7070   0.00890   0.00330  -0.0542   0.4778   1.0000
   6.000   0.8946   0.01101   0.00478  -0.0474   0.2935   1.0000
   8.000   1.0595   0.01591   0.00857  -0.0386   0.0811   1.0000
  10.000   1.2046   0.02112   0.01401  -0.0272   0.0524   1.0000
  12.000   1.2966   0.02912   0.02242  -0.0121   0.0406   1.0000
  14.000   1.3599   0.04146   0.03547  -0.0035   0.0315   1.0000
  16.000   1.3680   0.06318   0.05798  -0.0039   0.0254   1.0000
  18.000   1.3132   0.09925   0.09507  -0.0167   0.0219   1.0000
