  
       XFOIL         Version 6.99
  
 Calculated polar for: RG-15 8.9%                                      
  
 1 1 Reynolds number fixed          Mach number fixed         
  
 xtrf =   1.000 (top)        1.000 (bottom)  
 Mach =   0.000     Re =     0.402 e 6     Ncrit =   9.000
  
   alpha    CL        CD       CDp       CM     Top_Xtr  Bot_Xtr
  ------ -------- --------- --------- -------- -------- --------
  -4.000  -0.2640   0.01202   0.00560  -0.0443   0.9832   0.0321
  -2.000   0.0140   0.00701   0.00283  -0.0574   0.9478   0.6935
   0.000   0.2621   0.00623   0.00207  -0.0597   0.8618   0.8589
   2.000   0.4878   0.00652   0.00197  -0.0579   0.6925   0.9873
   4.000   0.6918   0.00819   0.00277  -0.0549   0.4594   1.0000
   6.000   0.8823   0.01155   0.00507  -0.0501   0.1661   1.0000
   8.000   1.0538   0.01756   0.01058  -0.0425   0.0143   1.0000
  10.000   1.1789   0.02837   0.02248  -0.0289   0.0092   1.0000
  12.000   1.0957   0.04066   0.03674  -0.0076   0.0084   1.0000
  14.000   0.8884   0.11019   0.10800  -0.0382   0.0096   1.0000
